data_global
_cell_length_a 14.5589442320
_cell_length_b 14.5590459228
_cell_length_c 14.5591300747
_cell_angle_alpha 60.0023455973
_cell_angle_beta 60.0032146247
_cell_angle_gamma 60.0038730748
_symmetry_space_group_name_H-M 'P 1'
loop_
_atom_site_label
_atom_site_fract_x
_atom_site_fract_y
_atom_site_fract_z
H   0.1516329009 0.5808784465 0.4098152162
H   0.5809252891 0.1515558604 0.8576387582
H   0.4097772585 0.8577387699 0.1516554498
H   0.8577023384 0.4098107421 0.5808766917
H   0.4098231538 0.1516324881 0.5808703211
H   0.8576397056 0.5809175171 0.1515549908
H   0.1516546054 0.4097850305 0.8577395439
H   0.5808687108 0.8577027623 0.4098188244
H   0.5808774621 0.4098164667 0.1516308068
H   0.1515532901 0.8576411382 0.5809247187
H   0.8577410437 0.1516527495 0.4097781565
H   0.4098119859 0.5808756609 0.8577041431
H   0.5808803178 0.1516315231 0.4098135799
H   0.1515541965 0.5809274203 0.8576402816
H   0.8577402675 0.4097753437 0.1516536771
H   0.4098090566 0.8577035218 0.5808784808
H   0.1516333448 0.4098194301 0.5808740547
H   0.5809209319 0.8576384786 0.1515562360
H   0.4097815210 0.1516558807 0.8577384298
H   0.8577019856 0.5808723844 0.4098150391
H   0.4098218274 0.5808718567 0.1516313279
H   0.8576408396 0.1515537098 0.5809191733
H   0.1516532489 0.8577406583 0.4097835788
H   0.5808701980 0.4098174569 0.8577037345
H   0.9091892875 0.9091870657 0.2723561663
H   0.9092227226 0.9092251984 0.9092271717
H   0.2723556777 0.9091914253 0.9091895965
H   0.9091912267 0.2723560106 0.9091871712
C   0.0877071101 0.5426868313 0.4476232702
C   0.5427183444 0.0876515246 0.9219823753
C   0.4476069833 0.9220232474 0.0876923307
C   0.9220094067 0.4476218570 0.5426844502
C   0.4476279782 0.0877066572 0.5426822235
C   0.9219827996 0.5427138968 0.0876509566
C   0.0876917981 0.4476116329 0.9220235342
C   0.5426799786 0.9220096196 0.4476266129
C   0.5426867554 0.4476238131 0.0877054177
C   0.0876497193 0.9219837947 0.5427183875
C   0.9220246020 0.0876904404 0.4476073994
C   0.4476223587 0.5426843763 0.9220105730
C   0.5426882545 0.0877060174 0.4476221421
C   0.0876503608 0.5427198211 0.9219833301
C   0.9220241957 0.4476057546 0.0876910847
C   0.4476206758 0.9220102004 0.5426858393
C   0.0877074083 0.4476258326 0.5426841929
C   0.5427157415 0.9219821301 0.0876517980
C   0.4476095657 0.0876926526 0.9220229494
C   0.9220091343 0.5426818697 0.4476244613
C   0.4476270824 0.5426833674 0.0877057693
C   0.9219835208 0.0876500299 0.5427150679
C   0.0876908145 0.9220242562 0.4476107004
C   0.5426811008 0.4476256868 0.9220102543
C   0.2978956380 0.0021880857 0.0021866980
C   0.0021891425 0.2979167623 0.6977176546
C   0.0021881927 0.6977177591 0.2979168731
C   0.6977655707 0.0021532780 0.0021547506
C   0.0021886079 0.2978962482 0.0021859395
C   0.6977172510 0.0021878274 0.2979175670
C   0.2979172325 0.0021888869 0.6977169247
C   0.0021526931 0.6977649789 0.0021555686
C   0.0021876390 0.0021867744 0.2978967275
C   0.2979177509 0.6977165013 0.0021884426
C   0.6977167233 0.2979179736 0.0021880416
C   0.0021536143 0.0021547545 0.6977645231
C   0.0046047601 0.5909991915 0.3998148093
C   0.5910600268 0.0045493588 0.0045499084
C   0.3997772831 0.0046133434 0.0046127303
C   0.0046054361 0.3998147608 0.5909991363
C   0.3998151161 0.0046057899 0.5909989146
C   0.0045489513 0.5910598294 0.0045501881
C   0.0046135634 0.3997777091 0.0046121712
C   0.5909990783 0.0046041742 0.3998152482
C   0.5909989375 0.3998155384 0.0046044147
C   0.0045491375 0.0045498490 0.5910597106
C   0.0046131334 0.0046123237 0.3997780465
C   0.3998154554 0.5909988298 0.0046053318
O   0.0773495919 0.7377509052 0.2614285460
O   0.7377815742 0.0773294781 0.9234566244
O   0.2614268506 0.9234675223 0.0773410046
O   0.9234703252 0.2614426634 0.7377431115
O   0.2614315917 0.0773519383 0.7377471080
O   0.9234559852 0.7377775905 0.0773306715
O   0.0773420577 0.2614305763 0.9234662920
O   0.7377397217 0.9234684146 0.2614464551
O   0.7377497878 0.2614295470 0.0773481723
O   0.0773279527 0.9234587319 0.7377803978
O   0.9234693079 0.0773390379 0.2614278818
O   0.2614437390 0.7377417084 0.9234723059
O   0.7377512815 0.0773477942 0.2614282994
O   0.0773279996 0.7377819911 0.9234584263
O   0.9234691797 0.2614263901 0.0773392116
O   0.2614422976 0.9234724988 0.7377431140
O   0.0773511373 0.2614301412 0.7377490040
O   0.7377796145 0.9234556209 0.0773305713
O   0.2614287215 0.0773421662 0.9234663525
O   0.9234688153 0.7377414671 0.2614445446
O   0.2614313054 0.7377474375 0.0773506374
O   0.9234571681 0.0773296589 0.7377780138
O   0.0773409150 0.9234673802 0.2614301110
O   0.7377398919 0.2614460884 0.9234698749
O   0.1926948608 0.9357633186 0.9357626456
O   0.9357632506 0.1926950449 0.9357616922
O   0.9357625464 0.9357616579 0.1926951292
O   0.9357779711 0.9357788511 0.9357795255
O   0.8399778479 0.0533483620 0.0533494188
O   0.0533483171 0.8399778433 0.0533508248
O   0.0533493557 0.0533508071 0.8399778410
O   0.0533409024 0.0533395981 0.0533386058
Zr  0.1135034992 0.8864975215 0.1135037761
Zr  0.8865080867 0.1134993133 0.8865077612
Zr  0.1135041842 0.1135043847 0.8864968491
Zr  0.8865074229 0.8865071960 0.1134999371
Zr  0.8864983890 0.1135028029 0.1135029065
Zr  0.1134985546 0.8865087083 0.8865085868