data_global
_cell_length_a 22.8642175000
_cell_length_b 22.8642177482
_cell_length_c 3.5375074850
_cell_angle_alpha 90.0000000000
_cell_angle_beta 90.0000000000
_cell_angle_gamma 119.9999999881
_symmetry_space_group_name_H-M 'P 1'
loop_
_atom_site_label
_atom_site_fract_x
_atom_site_fract_y
_atom_site_fract_z
O   0.2866046443 0.5301469791 0.5000000001
O   0.4698530272 0.7564576686 0.5000000001
O   0.2435423352 0.7133953599 0.5000000001
O   0.7133953553 0.4698530209 0.5000000001
O   0.5301469724 0.2435423313 0.5000000001
O   0.7564576643 0.2866046400 0.5000000001
N   0.4145884597 0.5561818280 0.5000000001
N   0.4438181767 0.8584066333 0.5000000001
N   0.1415933683 0.5854115443 0.5000000001
N   0.5854115398 0.4438181716 0.5000000001
N   0.5561818230 0.1415933666 0.5000000001
N   0.8584066311 0.4145884553 0.5000000001
C   0.3082979020 0.5925093553 0.5000000001
C   0.4074906500 0.7157885494 0.5000000001
C   0.2842114542 0.6917021018 0.5000000001
C   0.6917020974 0.4074906444 0.5000000001
C   0.5925093497 0.2842114504 0.5000000001
C   0.7157885452 0.3082978978 0.5000000001
C   0.3817772862 0.6419308379 0.5000000001
C   0.3580691669 0.7398464500 0.5000000001
C   0.2601535532 0.6182227188 0.5000000001
C   0.6182227134 0.3580691620 0.5000000001
C   0.6419308325 0.2601535497 0.5000000001
C   0.7398464461 0.3817772809 0.5000000001
C   0.4301108631 0.6216923608 0.5000000001
C   0.3783076434 0.8084185030 0.5000000001
C   0.1915814993 0.5698891422 0.5000000001
C   0.5698891364 0.3783076389 0.5000000001
C   0.6216923561 0.1915814967 0.5000000001
C   0.8084185002 0.4301108575 0.5000000001
C   0.4585846809 0.5299480346 0.5000000001
C   0.4700519679 0.9286366471 0.5000000001
C   0.0713633536 0.5414153213 0.5000000001
C   0.5414153187 0.4700519653 0.5000000001
C   0.5299480316 0.0713633527 0.5000000001
C   0.9286366459 0.4585846784 0.5000000001
C   0.4297666043 0.4588754107 0.5000000001
C   0.5411245921 0.9708911973 0.5000000001
C   0.0291088025 0.5702333942 0.5000000001
C   0.5702333952 0.5411245890 0.5000000001
C   0.4588754074 0.0291088025 0.5000000001
C   0.9708911968 0.4297666054 0.5000000001
C   0.5298062990 0.5707557669 0.5000000001
C   0.4292442324 0.9590505293 0.5000000001
C   0.0409494712 0.4701937044 0.5000000001
C   0.4701937005 0.4292442330 0.5000000001
C   0.5707557670 0.0409494707 0.5000000001
C   0.9590505283 0.5298062957 0.5000000001
H   0.3750389399 0.4267133942 0.5000000001
H   0.5732866109 0.9483255522 0.5000000001
H   0.0516744473 0.6249610580 0.5000000001
H   0.6249610597 0.5732866056 0.5000000001
H   0.4267133887 0.0516744477 0.5000000001
H   0.9483255522 0.3750389420 0.5000000001
H   0.4834066493 0.6609205735 0.5000000001
H   0.3390794299 0.8224860755 0.5000000001
H   0.1775139271 0.5165933571 0.5000000001
H   0.5165933502 0.3390794261 0.5000000001
H   0.6609205693 0.1775139242 0.5000000001
H   0.8224860724 0.4834066430 0.5000000001
H   0.5540769058 0.6255809122 0.5000000001
H   0.3744190864 0.9284959880 0.5000000001
H   0.0715040124 0.4459231000 0.5000000001
H   0.4459230937 0.3744190875 0.5000000001
H   0.6255809129 0.0715040118 0.5000000001
H   0.9284959872 0.5540768997 0.5000000001
H   0.3631412805 0.5219966517 0.5000000001
H   0.4780033545 0.8411446322 0.5000000001
H   0.1588553692 0.6368587226 0.5000000001
H   0.6368587191 0.4780033483 0.5000000001
H   0.5219966451 0.1588553677 0.5000000001
H   0.8411446302 0.3631412770 0.5000000001